[TITLE]
Scenario: MEDIUM - PEAKED 
Date: 17/5/2022				

[JUNCTIONS]
;ID              	Elev        	Demand      	Pattern         
 122             	33.29470062 	0           	                	;
 128             	48.20557022 	0.042083333 	1               	;
 129             	40.26018906 	0.135694444 	1               	;
 130             	33.29104233 	0.075555556 	1               	;
 132             	24.81019402 	0           	                	;
 162             	29.68267059 	0.077638889 	1               	;
 164             	30.54152679 	0.055833333 	1               	;
 166             	27.3206749  	0.079583333 	1               	;
 167             	24.78153419 	0.135833333 	1               	;
 168             	28.74156952 	0           	                	;
 169             	25.9523201  	0           	                	;
 170             	25.20806313 	0           	                	;
 173             	42.60651779 	0           	                	;
 174             	46.65616989 	0.052083333 	1               	;
 175             	30.1459198  	0           	                	;
 181             	46.22414398 	0.088055556 	1               	;
 182             	46.22414398 	0           	                	;
 183             	36.63947678 	0.082083333 	1               	;
 184             	33.29470062 	0           	                	;
 185             	43.57028198 	0.171666667 	1               	;
 604             	65.70238304 	0           	                	;
 612             	53.97018814 	0.065555556 	1               	;
 613             	50.85184479 	0           	                	;
 615             	49.72509766 	0           	                	;
 616             	49.90552902 	0           	                	;
 617             	48.73373413 	0.449027778 	1               	;
 618             	49.8369751  	0.03875     	1               	;
 619             	51.51711273 	0.145416667 	1               	;
 621             	51.83773041 	0.064166667 	1               	;
 622             	49.59844589 	0           	                	;
 624             	33.17961502 	0.152777778 	1               	;
 625             	55.60690308 	0.460555556 	1               	;
 626             	49.59106445 	0           	                	;
 627             	53.32428741 	0           	                	;
 628             	49.21061325 	0           	                	;
 629             	48.57908249 	0           	                	;
 630             	39.57807159 	0           	                	;
 632             	43.81867981 	0.117777778 	1               	;
 708             	34.66796494 	0.065416667 	1               	;
 710             	28.57468414 	0.351805556 	1               	;
 719             	36.65763474 	0.098611111 	1               	;
 721             	39.77185822 	0           	                	;
 723             	42.91667557 	0           	                	;
 724             	42.46834946 	0.134722222 	1               	;
 726             	29.5855484  	0           	                	;
 727             	32.18384171 	0.333472222 	1               	;
 728             	33.17059708 	0           	                	;
 729             	47.5567627  	0.184027778 	1               	;
 730             	48.76678085 	0.008333333 	1               	;
 732             	49.03995895 	0           	                	;
 733             	45.58271408 	0           	                	;
 734             	44.76599884 	0.205555556 	1               	;
 735             	33.49935913 	0           	                	;
 736             	34.66946411 	0           	                	;
 737             	33.11510086 	0.784305556 	1               	;
 738             	32.38347626 	0.201527778 	1               	;
 739             	31.74964142 	0           	                	;
 740             	31.74964142 	0.123194444 	1               	;
 741             	30.49715424 	0           	                	;
 743             	28.9054184  	0           	                	;
 744             	29.16739273 	0.023194444 	1               	;
 745             	28.84119034 	0.202222222 	1               	;
 746             	29.23752594 	0.007916667 	1               	;
 747             	28.05725861 	0           	                	;
 748             	25.97383118 	0.210138889 	1               	;
 749             	25.18717957 	0.144861111 	1               	;
 750             	26.27825928 	0.165138889 	1               	;
 751             	28.17973328 	0           	                	;
 752             	28.17973328 	0.240416667 	1               	;
 754             	31.57808304 	0           	                	;
 755             	30.87614822 	0           	                	;
 1184            	50.92703629 	0           	                	;
 1261            	48.03189087 	0           	                	;
 1302            	30.36299133 	0           	                	;
 1456            	29.56036758 	0.060138889 	1               	;
 1466            	54.14008331 	0           	                	;
 1467            	39.77185822 	0           	                	;
 1552            	52.07165909 	0.167638889 	1               	;
 1554            	24.2864418  	0.262777778 	1               	;
 2009            	50.0593338  	0           	                	;
 2010            	54.19068909 	0           	                	;
 2048            	46.58271408 	0           	                	;
 2124            	29.32266235 	0           	                	;
 2740            	26.62316132 	0.531527778 	1               	;
 2759            	35.27824402 	0.340416667 	1               	;
 2760            	25.96389771 	0.266944444 	1               	;
 2761            	95.61243439 	0           	                	;
 2762            	84.59255219 	0           	                	;
 3021            	53.44335938 	0           	                	;
 3090            	31.97174072 	0.056388889 	1               	;
 3101            	52.86180115 	0           	                	;
 3117            	55.60690308 	0.109861111 	1               	;
 3200            	52.56518936 	0.023194444 	1               	;
 3201            	46.48830414 	0.320138889 	1               	;
 3227            	39.57807159 	0           	                	;
 3233            	33.24208832 	0           	                	;
 3234            	33.29470062 	0           	                	;
 3235            	28.29724884 	0           	                	;
 3278            	33.29104233 	0.040694444 	1               	;
 3279            	35.37417221 	0           	                	;
 3280            	53.26961136 	0.039444444 	1               	;
 3860            	30.8920784  	0.051805556 	1               	;
 12850           	26.00727061 	0.015416667 	1               	;
 12854           	25.06149718 	0           	                	;
 12857           	26.59499754 	0.038055556 	1               	;
 12860           	26.74071961 	0.329027778 	1               	;
 12863           	27.56290419 	0.077916667 	1               	;
 12866           	27.53573594 	0.014305556 	1               	;
 12869           	28.20962727 	0.11        	1               	;
 12872           	28.89231011 	0.147083333 	1               	;
 12875           	29.1292771  	0.336527778 	1               	;
 12878           	29.98880484 	0.313472222 	1               	;
 12881           	29.18378821 	0.20875     	1               	;
 12884           	29.43449213 	0.273055556 	1               	;
 12887           	30.5352114  	0.201388889 	1               	;
 12890           	31.98631927 	0.160833333 	1               	;
 12893           	30.0248631  	0.455972222 	1               	;
 12896           	29.26258078 	0.080694444 	1               	;
 12899           	32.04567851 	0.76625     	1               	;
 12902           	32.02068869 	0.082222222 	1               	;
 12906           	30.79578627 	0.298194444 	1               	;
 12909           	30.90030894 	0.161527778 	1               	;
 12912           	31.95604125 	0.591111111 	1               	;
 12915           	31.66895219 	0.165       	1               	;
 12918           	31.56606228 	0.044583333 	1               	;
 12921           	31.5729929  	0.286388889 	1               	;
 12924           	32.86923765 	0.020277778 	1               	;
 12927           	34.77299575 	0.164305556 	1               	;
 12930           	34.97602993 	0           	                	;
 12933           	36.56341433 	0.03125     	1               	;
 12936           	31.2640127  	0.01375     	1               	;
 12939           	35.68163417 	0.351805556 	1               	;
 12942           	35.17282162 	0.13625     	1               	;
 12945           	34.83655881 	0.274722222 	1               	;
 12948           	30.03532971 	0.027222222 	1               	;
 12951           	31.58934253 	0.06375     	1               	;
 12954           	28.34750438 	0.192361111 	1               	;
 12957           	23.85236573 	0.430277778 	1               	;
 12960           	29.00811967 	0.133055556 	1               	;
 12963           	28.30022501 	0.153888889 	1               	;
 12966           	25.33010417 	0.89125     	1               	;
 12972           	37.14153135 	0.085694444 	1               	;
 12975           	39.76108034 	0.080277778 	1               	;
 12978           	40.94616985 	0.036111111 	1               	;
 12981           	39.8335811  	0.011111111 	1               	;
 12984           	38.4475683  	0.028888889 	1               	;
 12987           	33.67005549 	0           	                	;
 12990           	34.2696565  	0.05375     	1               	;
 12993           	38.26865564 	0           	                	;
 12996           	35.42766766 	0.073888889 	1               	;
 12999           	36.10374725 	0.18        	1               	;
 13003           	35.81691181 	0.351111111 	1               	;
 13006           	38.25950745 	0.522916667 	1               	;
 13009           	41.10648294 	0.489305556 	1               	;
 13012           	43.55728749 	0.081944444 	1               	;
 13015           	46.97143639 	0           	                	;
 13018           	38.70028423 	0.114166667 	1               	;
 13021           	42.36815994 	0.050833333 	1               	;
 13024           	39.24914203 	0           	                	;
 13027           	48.28025478 	0.110972222 	1               	;
 13030           	49.37271564 	0.1625      	1               	;
 13033           	48.25055809 	0.003888889 	1               	;
 13036           	51.70347751 	0.061527778 	1               	;
 13039           	48.75456034 	0.260972222 	1               	;
 13042           	47.27020769 	0.302083333 	1               	;
 13045           	48.6772328  	0.271944444 	1               	;
 13048           	49.04484201 	0.088888889 	1               	;
 13051           	48.23636851 	0           	                	;
 13054           	38.39158747 	0.10375     	1               	;
 13057           	40.51985898 	0.2375      	1               	;
 13060           	34.33351979 	0.56625     	1               	;
 13063           	31.84740411 	0.278055556 	1               	;
 13066           	30.2360877  	0.751666667 	1               	;
 13069           	28.47799474 	0.204583333 	1               	;
 13072           	27.19766892 	0.215555556 	1               	;
 13075           	48.3409567  	0.170833333 	1               	;
 13078           	45.53812903 	0.197361111 	1               	;
 13081           	30.79705526 	0.10625     	1               	;
 13084           	35.76167065 	0.279166667 	1               	;
 13087           	39.75802061 	0           	                	;
 13090           	41.05969112 	0           	                	;
 13093           	56.73741576 	0.253055556 	1               	;
 13096           	48.52625727 	0.333611111 	1               	;
 13099           	54.82082623 	0.054583333 	1               	;
 13102           	53.7540472  	0.102777778 	1               	;
 13105           	47.42145768 	0.023333333 	1               	;
 13108           	42.27599517 	0.392777778 	1               	;
 13111           	48.55731531 	0.268888889 	1               	;
 13114           	54.18482441 	0.165972222 	1               	;
 13117           	49.20760723 	0.384166667 	1               	;
 13120           	48.29424163 	0           	                	;
 13123           	51.61598572 	0           	                	;
 13126           	54.89212053 	0.057083333 	1               	;
 13129           	49.45679045 	0.0525      	1               	;
 13132           	50.30684352 	0           	                	;
 13135           	48.72568154 	0.100972222 	1               	;
 13138           	55.87878765 	0.087777778 	1               	;
 13141           	54.4743614  	0.09375     	1               	;
 13144           	49.87350526 	0.096666667 	1               	;
 13147           	50.87879801 	0.050277778 	1               	;
 13150           	58.01978024 	0.090138889 	1               	;
 13153           	54.49925249 	0.568611111 	1               	;
 13156           	56.70202359 	1.11125     	1               	;
 13159           	48.15941235 	0.311944444 	1               	;
 13162           	54.19806173 	0.075       	1               	;
 13165           	52.53237718 	0.179027778 	1               	;
 13168           	48.03098981 	0.006805556 	1               	;
 13201           	54.47232241 	0.114166667 	1               	;
 13204           	50.91281014 	0.018611111 	1               	;
 1               	54.92671833 	0           	                	;

[RESERVOIRS]
;ID              	Head        	Pattern         
 2               	125.81      	                	;

[TANKS]
;ID              	Elevation   	InitLevel   	MinLevel    	MaxLevel    	Diameter    	MinVol      	VolCurve        	Overflow

[PIPES]
;ID              	Node1           	Node2           	Length      	Diameter    	Roughness   	MinorLoss   	Status
 4265            	739             	740             	2.398202174 	100         	0.26        	0           	Open  	;
 4304            	751             	752             	2.346691028 	100         	0.26        	0           	Open  	;
 4376            	3227            	630             	2.255393535 	100         	0.26        	0           	Open  	;
 4384            	173             	724             	2.303138737 	100         	0.26        	0           	Open  	;
 4428            	721             	1467            	2.689609637 	100         	0.26        	0           	Open  	;
 4445            	719             	183             	3.053199219 	100         	0.26        	0           	Open  	;
 4457            	182             	181             	3.226143209 	100         	0.26        	0           	Open  	;
 4466            	184             	3234            	3.341676226 	100         	0.26        	0           	Open  	;
 4494            	3234            	122             	3.680019576 	100         	0.26        	0           	Open  	;
 4535            	626             	628             	4.159278783 	200         	0.26        	0           	Open  	;
 4549            	625             	3117            	4.433402261 	100         	0.26        	0           	Open  	;
 4631            	733             	2048            	5.626011019 	100         	0.26        	0           	Open  	;
 4652            	130             	3278            	5.981641111 	100         	0.26        	0           	Open  	;
 4752            	122             	737             	7.887103531 	100         	0.26        	0           	Open  	;
 4824            	174             	182             	10.63498717 	150         	0.26        	0           	Open  	;
 4830            	1               	612             	10.99346948 	300         	0.26        	0           	Open  	;
 4874            	3101            	3200            	12.02566743 	100         	0.26        	0           	Open  	;
 5464            	132             	1554            	16.1793424  	100         	0.26        	0           	Open  	;
 5553            	622             	626             	20.4663392  	200         	0.26        	0           	Open  	;
 5565            	164             	1302            	21.07699704 	100         	0.26        	0           	Open  	;
 5642            	1552            	627             	26.23746248 	100         	0.26        	0           	Open  	;
 5660            	751             	3235            	27.72840988 	100         	0.26        	0           	Open  	;
 5667            	615             	616             	28.73305949 	100         	0.26        	0           	Open  	;
 5677            	744             	2124            	30.00719647 	100         	0.26        	0           	Open  	;
 5689            	730             	729             	31.00367475 	100         	0.26        	0           	Open  	;
 5726            	747             	746             	33.49678083 	100         	0.26        	0           	Open  	;
 5751            	1466            	1261            	35.70481869 	100         	0.26        	0           	Open  	;
 5758            	2761            	2762            	35.99913004 	400         	0.26        	0           	Open  	;
 5804            	734             	632             	41.53996054 	100         	0.26        	0           	Open  	;
 6010            	736             	184             	71.31676802 	150         	0.26        	0           	Open  	;
 6131            	710             	1456            	86.44330891 	100         	0.26        	0           	Open  	;
 6161            	619             	3201            	92.21670834 	100         	0.26        	0           	Open  	;
 6163            	708             	735             	89.70341738 	150         	0.26        	0           	Open  	;
 6187            	162             	1456            	93.00606831 	100         	0.26        	0           	Open  	;
 6188            	128             	174             	92.95985202 	150         	0.26        	0           	Open  	;
 6256            	3090            	2759            	102.2593892 	100         	0.26        	0           	Open  	;
 6262            	624             	727             	102.4990596 	100         	0.26        	0           	Open  	;
 6265            	182             	734             	107.7253377 	150         	0.26        	0           	Open  	;
 6269            	746             	741             	103.6420026 	100         	0.26        	0           	Open  	;
 6404            	2048            	1467            	120.1196089 	100         	0.26        	0           	Open  	;
 6413            	122             	162             	121.042614  	100         	0.26        	0           	Open  	;
 6415            	622             	1552            	121.5029542 	200         	0.26        	0           	Open  	;
 6434            	2760            	2740            	132.9621784 	100         	0.26        	0           	Open  	;
 6449            	613             	3200            	124.9479009 	150         	0.26        	0           	Open  	;
 6593            	723             	173             	147.0438354 	100         	0.26        	0           	Open  	;
 6633            	2740            	3090            	150.6933467 	100         	0.26        	0           	Open  	;
 6663            	2759            	719             	175.3495077 	100         	0.26        	0           	Open  	;
 6671            	175             	744             	157.5017744 	100         	0.26        	0           	Open  	;
 6677            	621             	619             	158.0541561 	100         	0.26        	0           	Open  	;
 6696            	732             	1552            	162.3772003 	100         	0.26        	0           	Open  	;
 6713            	3201            	721             	164.9776773 	100         	0.26        	0           	Open  	;
 6779            	719             	630             	182.7984851 	100         	0.26        	0           	Open  	;
 6818            	169             	2760            	185.9168802 	100         	0.26        	0           	Open  	;
 6833            	3233            	3201            	194.3062926 	100         	0.26        	0           	Open  	;
 6842            	3235            	749             	205.9845488 	100         	0.26        	0           	Open  	;
 6866            	130             	169             	195.5092637 	100         	0.26        	0           	Open  	;
 6906            	741             	743             	212.2344236 	100         	0.26        	0           	Open  	;
 6943            	612             	625             	207.886058  	300         	0.26        	0           	Open  	;
 6944            	615             	627             	209.0761697 	100         	0.26        	0           	Open  	;
 7012            	170             	132             	224.153698  	100         	0.26        	0           	Open  	;
 7097            	1466            	616             	246.0230301 	100         	0.26        	0           	Open  	;
 7108            	169             	170             	281.3926554 	100         	0.26        	0           	Open  	;
 7451            	604             	2009            	421.9891462 	400         	0.26        	0           	Open  	;
 7849            	2762            	604             	1041.10987  	400         	0.26        	0           	Open  	;
 8026            	2009            	3021            	567.6851177 	400         	0.26        	0           	Open  	;
 8027            	3021            	2010            	117.7588554 	400         	0.26        	0           	Open  	;
 12851           	750             	12850           	387.2566262 	100         	0.26        	0           	Open  	;
 12852           	12850           	749             	25.52973509 	100         	0.26        	0           	Open  	;
 12855           	749             	12854           	19.05659395 	100         	0.26        	0           	Open  	;
 12856           	12854           	748             	85.27308503 	100         	0.26        	0           	Open  	;
 12858           	748             	12857           	32.72853498 	100         	0.26        	0           	Open  	;
 12862           	12860           	748             	20.75896029 	100         	0.26        	0           	Open  	;
 12864           	12857           	12863           	89.16796295 	100         	0.26        	0           	Open  	;
 12865           	12863           	747             	43.68537646 	100         	0.26        	0           	Open  	;
 12867           	747             	12866           	42.61119157 	100         	0.26        	0           	Open  	;
 12868           	12866           	12860           	107.310808  	100         	0.26        	0           	Open  	;
 12870           	746             	12869           	116.1329682 	100         	0.26        	0           	Open  	;
 12871           	12869           	3235            	26.30582922 	100         	0.26        	0           	Open  	;
 12874           	12872           	2124            	65.27587045 	100         	0.26        	0           	Open  	;
 12876           	2124            	12875           	51.0692599  	100         	0.26        	0           	Open  	;
 12877           	12875           	751             	193.1337617 	100         	0.26        	0           	Open  	;
 12879           	743             	12878           	26.80158666 	100         	0.26        	0           	Open  	;
 12880           	12878           	744             	53.25770555 	100         	0.26        	0           	Open  	;
 12882           	743             	12881           	44.55793186 	100         	0.26        	0           	Open  	;
 12883           	12881           	745             	82.90033511 	100         	0.26        	0           	Open  	;
 12885           	755             	12884           	208.025751  	100         	0.26        	0           	Open  	;
 12886           	12884           	12872           	249.0743804 	100         	0.26        	0           	Open  	;
 12889           	12887           	755             	99.0845255  	100         	0.26        	0           	Open  	;
 12891           	754             	12890           	43.14783475 	100         	0.26        	0           	Open  	;
 12892           	12890           	3860            	201.4259726 	100         	0.26        	0           	Open  	;
 12895           	12893           	12887           	111.6109241 	100         	0.26        	0           	Open  	;
 12897           	1456            	12896           	51.89193213 	100         	0.26        	0           	Open  	;
 12898           	12896           	12893           	56.33090231 	100         	0.26        	0           	Open  	;
 12900           	738             	12899           	240.8069934 	100         	0.26        	0           	Open  	;
 12903           	738             	12902           	68.9406259  	100         	0.26        	0           	Open  	;
 12907           	754             	12906           	35.34555451 	100         	0.26        	0           	Open  	;
 12908           	12906           	175             	39.18953068 	100         	0.26        	0           	Open  	;
 12910           	755             	12909           	36.93392055 	100         	0.26        	0           	Open  	;
 12911           	12909           	754             	24.44231118 	100         	0.26        	0           	Open  	;
 12913           	741             	12912           	283.4790914 	100         	0.26        	0           	Open  	;
 12914           	12912           	739             	91.4922289  	100         	0.26        	0           	Open  	;
 12916           	739             	12915           	51.91819781 	100         	0.26        	0           	Open  	;
 12919           	12915           	12918           	149.0682615 	100         	0.26        	0           	Open  	;
 12920           	12918           	738             	104.8552518 	100         	0.26        	0           	Open  	;
 12922           	12902           	12921           	85.07710111 	100         	0.26        	0           	Open  	;
 12926           	12924           	3233            	119.1795157 	100         	0.26        	0           	Open  	;
 12928           	3233            	12927           	134.1766873 	100         	0.26        	0           	Open  	;
 12929           	12927           	728             	88.37991193 	100         	0.26        	0           	Open  	;
 12931           	728             	12930           	111.8424153 	100         	0.26        	0           	Open  	;
 12937           	12921           	12936           	58.7166537  	100         	0.26        	0           	Open  	;
 12938           	12936           	12924           	75.02056902 	100         	0.26        	0           	Open  	;
 12940           	12899           	12939           	311.3056648 	100         	0.26        	0           	Open  	;
 12941           	12939           	3234            	55.60187586 	100         	0.26        	0           	Open  	;
 12943           	3279            	12942           	24.49961766 	150         	0.26        	0           	Open  	;
 12944           	12942           	736             	61.246738   	150         	0.26        	0           	Open  	;
 12947           	12945           	3279            	56.63131308 	150         	0.26        	0           	Open  	;
 12949           	164             	12948           	35.20488588 	100         	0.26        	0           	Open  	;
 12950           	12948           	166             	188.7982273 	100         	0.26        	0           	Open  	;
 12952           	736             	12951           	128.6104885 	100         	0.26        	0           	Open  	;
 12953           	12951           	164             	43.75154983 	100         	0.26        	0           	Open  	;
 12955           	1302            	12954           	62.81084244 	100         	0.26        	0           	Open  	;
 12958           	12954           	12957           	140.0921734 	100         	0.26        	0           	Open  	;
 12959           	12957           	167             	189.199055  	100         	0.26        	0           	Open  	;
 12961           	1302            	12960           	78.46826837 	100         	0.26        	0           	Open  	;
 12962           	12960           	168             	15.43742436 	100         	0.26        	0           	Open  	;
 12964           	168             	12963           	13.68633272 	100         	0.26        	0           	Open  	;
 12965           	12963           	130             	155.3374738 	100         	0.26        	0           	Open  	;
 12967           	132             	12966           	140.1159102 	100         	0.26        	0           	Open  	;
 12974           	12972           	2759            	141.7646223 	100         	0.26        	0           	Open  	;
 12976           	129             	12975           	37.97375082 	100         	0.26        	0           	Open  	;
 12980           	12978           	129             	42.22047555 	100         	0.26        	0           	Open  	;
 12982           	129             	12981           	50.39260005 	100         	0.26        	0           	Open  	;
 12983           	12981           	168             	128.9926773 	100         	0.26        	0           	Open  	;
 12986           	12984           	12972           	99.36756096 	100         	0.26        	0           	Open  	;
 12988           	735             	12987           	17.98095457 	150         	0.26        	0           	Open  	;
 12989           	12987           	12945           	122.8780944 	150         	0.26        	0           	Open  	;
 12991           	12933           	12990           	61.1600694  	100         	0.26        	0           	Open  	;
 12992           	12990           	735             	20.53897765 	100         	0.26        	0           	Open  	;
 12995           	12993           	12933           	45.46964406 	100         	0.26        	0           	Open  	;
 12997           	12930           	12996           	41.28748588 	100         	0.26        	0           	Open  	;
 12998           	12996           	12993           	110.9011456 	100         	0.26        	0           	Open  	;
 13000           	1467            	12999           	118.2262848 	100         	0.26        	0           	Open  	;
 13001           	12999           	728             	41.3486845  	100         	0.26        	0           	Open  	;
 13004           	708             	13003           	32.61022706 	100         	0.26        	0           	Open  	;