[TITLE]
Scenario: LARGE - SMOOTH 
Date: 17/5/2022			

[JUNCTIONS]
;ID              	Elev        	Demand      	Pattern         
 122             	33.29470062 	0           	                	;
 128             	48.20557022 	0.0946875   	1               	;
 129             	40.26018906 	0.3053125   	1               	;
 130             	33.29104233 	0.17        	1               	;
 132             	24.81019402 	0           	                	;
 162             	29.68267059 	0.1746875   	1               	;
 164             	30.54152679 	0.125625    	1               	;
 166             	27.3206749  	0.1790625   	1               	;
 167             	24.78153419 	0.305625    	1               	;
 168             	28.74156952 	0           	                	;
 169             	25.9523201  	0           	                	;
 170             	25.20806313 	0           	                	;
 173             	42.60651779 	0           	                	;
 174             	46.65616989 	0.1171875   	1               	;
 175             	30.1459198  	0           	                	;
 181             	46.22414398 	0.198125    	1               	;
 182             	46.22414398 	0           	                	;
 183             	36.63947678 	0.1846875   	1               	;
 184             	33.29470062 	0           	                	;
 185             	43.57028198 	0.38625     	1               	;
 604             	65.70238304 	0           	                	;
 612             	53.97018814 	0.1475      	1               	;
 613             	50.85184479 	0           	                	;
 615             	49.72509766 	0           	                	;
 616             	49.90552902 	0           	                	;
 617             	48.73373413 	1.0103125   	1               	;
 618             	49.8369751  	0.0871875   	1               	;
 619             	51.51711273 	0.3271875   	1               	;
 621             	51.83773041 	0.144375    	1               	;
 622             	49.59844589 	0           	                	;
 624             	33.17961502 	0.34375     	1               	;
 625             	55.60690308 	1.03625     	1               	;
 626             	49.59106445 	0           	                	;
 627             	53.32428741 	0           	                	;
 628             	49.21061325 	0           	                	;
 629             	48.57908249 	0           	                	;
 630             	39.57807159 	0           	                	;
 632             	43.81867981 	0.265       	1               	;
 708             	34.66796494 	0.1471875   	1               	;
 710             	28.57468414 	0.7915625   	1               	;
 719             	36.65763474 	0.221875    	1               	;
 721             	39.77185822 	0           	                	;
 723             	42.91667557 	0           	                	;
 724             	42.46834946 	0.303125    	1               	;
 726             	29.5855484  	0           	                	;
 727             	32.18384171 	0.7503125   	1               	;
 728             	33.17059708 	0           	                	;
 729             	47.5567627  	0.4140625   	1               	;
 730             	48.76678085 	0.01875     	1               	;
 732             	49.03995895 	0           	                	;
 733             	45.58271408 	0           	                	;
 734             	44.76599884 	0.4625      	1               	;
 735             	33.49935913 	0           	                	;
 736             	34.66946411 	0           	                	;
 737             	33.11510086 	1.7646875   	1               	;
 738             	32.38347626 	0.4534375   	1               	;
 739             	31.74964142 	0           	                	;
 740             	31.74964142 	0.2771875   	1               	;
 741             	30.49715424 	0           	                	;
 743             	28.9054184  	0           	                	;
 744             	29.16739273 	0.0521875   	1               	;
 745             	28.84119034 	0.455       	1               	;
 746             	29.23752594 	0.0178125   	1               	;
 747             	28.05725861 	0           	                	;
 748             	25.97383118 	0.4728125   	1               	;
 749             	25.18717957 	0.3259375   	1               	;
 750             	26.27825928 	0.3715625   	1               	;
 751             	28.17973328 	0           	                	;
 752             	28.17973328 	0.5409375   	1               	;
 754             	31.57808304 	0           	                	;
 755             	30.87614822 	0           	                	;
 1184            	50.92703629 	0           	                	;
 1261            	48.03189087 	0           	                	;
 1302            	30.36299133 	0           	                	;
 1456            	29.56036758 	0.1353125   	1               	;
 1466            	54.14008331 	0           	                	;
 1467            	39.77185822 	0           	                	;
 1552            	52.07165909 	0.3771875   	1               	;
 1554            	24.2864418  	0.59125     	1               	;
 2009            	50.0593338  	0           	                	;
 2010            	54.19068909 	0           	                	;
 2048            	46.58271408 	0           	                	;
 2124            	29.32266235 	0           	                	;
 2740            	26.62316132 	1.1959375   	1               	;
 2759            	35.27824402 	0.7659375   	1               	;
 2760            	25.96389771 	0.600625    	1               	;
 2761            	95.61243439 	0           	                	;
 2762            	84.59255219 	0           	                	;
 3021            	53.44335938 	0           	                	;
 3090            	31.97174072 	0.126875    	1               	;
 3101            	52.86180115 	0           	                	;
 3117            	55.60690308 	0.2471875   	1               	;
 3200            	52.56518936 	0.0521875   	1               	;
 3201            	46.48830414 	0.7203125   	1               	;
 3227            	39.57807159 	0           	                	;
 3233            	33.24208832 	0           	                	;
 3234            	33.29470062 	0           	                	;
 3235            	28.29724884 	0           	                	;
 3278            	33.29104233 	0.0915625   	1               	;
 3279            	35.37417221 	0           	                	;
 3280            	53.26961136 	0.08875     	1               	;
 3860            	30.8920784  	0.1165625   	1               	;
 12850           	26.00727061 	0.0346875   	1               	;
 12854           	25.06149718 	0           	                	;
 12857           	26.59499754 	0.085625    	1               	;
 12860           	26.74071961 	0.7403125   	1               	;
 12863           	27.56290419 	0.1753125   	1               	;
 12866           	27.53573594 	0.0321875   	1               	;
 12869           	28.20962727 	0.2475      	1               	;
 12872           	28.89231011 	0.3309375   	1               	;
 12875           	29.1292771  	0.7571875   	1               	;
 12878           	29.98880484 	0.7053125   	1               	;
 12881           	29.18378821 	0.4696875   	1               	;
 12884           	29.43449213 	0.614375    	1               	;
 12887           	30.5352114  	0.453125    	1               	;
 12890           	31.98631927 	0.361875    	1               	;
 12893           	30.0248631  	1.0259375   	1               	;
 12896           	29.26258078 	0.1815625   	1               	;
 12899           	32.04567851 	1.7240625   	1               	;
 12902           	32.02068869 	0.185       	1               	;
 12906           	30.79578627 	0.6709375   	1               	;
 12909           	30.90030894 	0.3634375   	1               	;
 12912           	31.95604125 	1.33        	1               	;
 12915           	31.66895219 	0.37125     	1               	;
 12918           	31.56606228 	0.1003125   	1               	;
 12921           	31.5729929  	0.644375    	1               	;
 12924           	32.86923765 	0.045625    	1               	;
 12927           	34.77299575 	0.3696875   	1               	;
 12930           	34.97602993 	0           	                	;
 12933           	36.56341433 	0.0703125   	1               	;
 12936           	31.2640127  	0.0309375   	1               	;
 12939           	35.68163417 	0.7915625   	1               	;
 12942           	35.17282162 	0.3065625   	1               	;
 12945           	34.83655881 	0.618125    	1               	;
 12948           	30.03532971 	0.06125     	1               	;
 12951           	31.58934253 	0.1434375   	1               	;
 12954           	28.34750438 	0.4328125   	1               	;
 12957           	23.85236573 	0.968125    	1               	;
 12960           	29.00811967 	0.299375    	1               	;
 12963           	28.30022501 	0.34625     	1               	;
 12966           	25.33010417 	2.0053125   	1               	;
 12972           	37.14153135 	0.1928125   	1               	;
 12975           	39.76108034 	0.180625    	1               	;
 12978           	40.94616985 	0.08125     	1               	;
 12981           	39.8335811  	0.025       	1               	;
 12984           	38.4475683  	0.065       	1               	;
 12987           	33.67005549 	0           	                	;
 12990           	34.2696565  	0.1209375   	1               	;
 12993           	38.26865564 	0           	                	;
 12996           	35.42766766 	0.16625     	1               	;
 12999           	36.10374725 	0.405       	1               	;
 13003           	35.81691181 	0.79        	1               	;
 13006           	38.25950745 	1.1765625   	1               	;
 13009           	41.10648294 	1.1009375   	1               	;
 13012           	43.55728749 	0.184375    	1               	;
 13015           	46.97143639 	0           	                	;
 13018           	38.70028423 	0.256875    	1               	;
 13021           	42.36815994 	0.114375    	1               	;
 13024           	39.24914203 	0           	                	;
 13027           	48.28025478 	0.2496875   	1               	;
 13030           	49.37271564 	0.365625    	1               	;
 13033           	48.25055809 	0.00875     	1               	;
 13036           	51.70347751 	0.1384375   	1               	;
 13039           	48.75456034 	0.5871875   	1               	;
 13042           	47.27020769 	0.6796875   	1               	;
 13045           	48.6772328  	0.611875    	1               	;
 13048           	49.04484201 	0.2         	1               	;
 13051           	48.23636851 	0           	                	;
 13054           	38.39158747 	0.2334375   	1               	;
 13057           	40.51985898 	0.534375    	1               	;
 13060           	34.33351979 	1.2740625   	1               	;
 13063           	31.84740411 	0.625625    	1               	;
 13066           	30.2360877  	1.69125     	1               	;
 13069           	28.47799474 	0.4603125   	1               	;
 13072           	27.19766892 	0.485       	1               	;
 13075           	48.3409567  	0.384375    	1               	;
 13078           	45.53812903 	0.4440625   	1               	;
 13081           	30.79705526 	0.2390625   	1               	;
 13084           	35.76167065 	0.628125    	1               	;
 13087           	39.75802061 	0           	                	;
 13090           	41.05969112 	0           	                	;
 13093           	56.73741576 	0.569375    	1               	;
 13096           	48.52625727 	0.750625    	1               	;
 13099           	54.82082623 	0.1228125   	1               	;
 13102           	53.7540472  	0.23125     	1               	;
 13105           	47.42145768 	0.0525      	1               	;
 13108           	42.27599517 	0.88375     	1               	;
 13111           	48.55731531 	0.605       	1               	;
 13114           	54.18482441 	0.3734375   	1               	;
 13117           	49.20760723 	0.864375    	1               	;
 13120           	48.29424163 	0           	                	;
 13123           	51.61598572 	0           	                	;
 13126           	54.89212053 	0.1284375   	1               	;
 13129           	49.45679045 	0.118125    	1               	;
 13132           	50.30684352 	0           	                	;
 13135           	48.72568154 	0.2271875   	1               	;
 13138           	55.87878765 	0.1975      	1               	;
 13141           	54.4743614  	0.2109375   	1               	;
 13144           	49.87350526 	0.2175      	1               	;
 13147           	50.87879801 	0.113125    	1               	;
 13150           	58.01978024 	0.2028125   	1               	;
 13153           	54.49925249 	1.279375    	1               	;
 13156           	56.70202359 	2.5003125   	1               	;
 13159           	48.15941235 	0.701875    	1               	;
 13162           	54.19806173 	0.16875     	1               	;
 13165           	52.53237718 	0.4028125   	1               	;
 13168           	48.03098981 	0.0153125   	1               	;
 13201           	54.47232241 	0.256875    	1               	;
 13204           	50.91281014 	0.041875    	1               	;
 1               	54.92671833 	0           	                	;

[RESERVOIRS]
;ID              	Head        	Pattern         
 2               	125.81      	                	;

[TANKS]
;ID              	Elevation   	InitLevel   	MinLevel    	MaxLevel    	Diameter    	MinVol      	VolCurve        	Overflow

[PIPES]
;ID              	Node1           	Node2           	Length      	Diameter    	Roughness   	MinorLoss   	Status
 4265            	739             	740             	3.597303261 	100         	0.26        	0           	Open  	;
 4304            	751             	752             	3.520036542 	100         	0.26        	0           	Open  	;
 4376            	3227            	630             	3.383090302 	100         	0.26        	0           	Open  	;
 4384            	173             	724             	3.454708106 	100         	0.26        	0           	Open  	;
 4428            	721             	1467            	4.034414456 	100         	0.26        	0           	Open  	;
 4445            	719             	183             	4.579798828 	100         	0.26        	0           	Open  	;
 4457            	182             	181             	4.839214813 	100         	0.26        	0           	Open  	;
 4466            	184             	3234            	5.012514339 	150         	0.26        	0           	Open  	;
 4494            	3234            	122             	5.520029364 	200         	0.26        	0           	Open  	;
 4535            	626             	628             	6.238918175 	400         	0.26        	0           	Open  	;
 4549            	625             	3117            	6.650103392 	100         	0.26        	0           	Open  	;
 4631            	733             	2048            	8.439016529 	100         	0.26        	0           	Open  	;
 4652            	130             	3278            	8.972461667 	100         	0.26        	0           	Open  	;
 4752            	122             	737             	11.8306553  	100         	0.26        	0           	Open  	;
 4824            	174             	182             	15.95248075 	300         	0.26        	0           	Open  	;
 4830            	1               	612             	16.49020421 	400         	0.26        	0           	Open  	;
 4874            	3101            	3200            	18.03850115 	100         	0.26        	0           	Open  	;
 5464            	132             	1554            	24.26901359 	100         	0.26        	0           	Open  	;
 5553            	622             	626             	30.69950879 	400         	0.26        	0           	Open  	;
 5565            	164             	1302            	31.61549557 	100         	0.26        	0           	Open  	;
 5642            	1552            	627             	39.35619372 	150         	0.26        	0           	Open  	;
 5660            	751             	3235            	41.59261482 	100         	0.26        	0           	Open  	;
 5667            	615             	616             	43.09958924 	100         	0.26        	0           	Open  	;
 5677            	744             	2124            	45.01079471 	100         	0.26        	0           	Open  	;
 5689            	730             	729             	46.50551213 	100         	0.26        	0           	Open  	;
 5726            	747             	746             	50.24517124 	100         	0.26        	0           	Open  	;
 5751            	1466            	1261            	53.55722804 	100         	0.26        	0           	Open  	;
 5758            	2761            	2762            	53.99869507 	600         	0.045       	0           	Open  	;
 5804            	734             	632             	62.3099408  	200         	0.26        	0           	Open  	;
 6010            	736             	184             	106.975152  	200         	0.26        	0           	Open  	;
 6131            	710             	1456            	129.6649634 	100         	0.26        	0           	Open  	;
 6161            	619             	3201            	138.3250625 	100         	0.26        	0           	Open  	;
 6163            	708             	735             	134.5551261 	250         	0.26        	0           	Open  	;
 6187            	162             	1456            	139.5091025 	200         	0.26        	0           	Open  	;
 6188            	128             	174             	139.439778  	300         	0.26        	0           	Open  	;
 6256            	3090            	2759            	153.3890838 	100         	0.26        	0           	Open  	;
 6262            	624             	727             	153.7485894 	100         	0.26        	0           	Open  	;
 6265            	182             	734             	161.5880065 	300         	0.26        	0           	Open  	;
 6269            	746             	741             	155.463004  	100         	0.26        	0           	Open  	;
 6404            	2048            	1467            	180.1794134 	100         	0.26        	0           	Open  	;
 6413            	122             	162             	181.563921  	200         	0.26        	0           	Open  	;
 6415            	622             	1552            	182.2544313 	200         	0.26        	0           	Open  	;
 6434            	2760            	2740            	199.4432675 	100         	0.26        	0           	Open  	;
 6449            	613             	3200            	187.4218513 	200         	0.26        	0           	Open  	;
 6593            	723             	173             	220.5657531 	100         	0.26        	0           	Open  	;
 6633            	2740            	3090            	226.04002   	100         	0.26        	0           	Open  	;
 6663            	2759            	719             	263.0242616 	100         	0.26        	0           	Open  	;
 6671            	175             	744             	236.2526616 	100         	0.26        	0           	Open  	;
 6677            	621             	619             	237.0812341 	100         	0.26        	0           	Open  	;
 6696            	732             	1552            	243.5658004 	150         	0.26        	0           	Open  	;
 6713            	3201            	721             	247.4665159 	100         	0.26        	0           	Open  	;
 6779            	719             	630             	274.1977277 	100         	0.26        	0           	Open  	;
 6818            	169             	2760            	278.8753203 	100         	0.26        	0           	Open  	;
 6833            	3233            	3201            	291.4594389 	100         	0.26        	0           	Open  	;
 6842            	3235            	749             	308.9768232 	100         	0.26        	0           	Open  	;
 6866            	130             	169             	293.2638955 	100         	0.26        	0           	Open  	;
 6906            	741             	743             	318.3516354 	100         	0.26        	0           	Open  	;
 6943            	612             	625             	311.829087  	400         	0.26        	0           	Open  	;
 6944            	615             	627             	313.6142546 	150         	0.26        	0           	Open  	;
 7012            	170             	132             	336.230547  	100         	0.26        	0           	Open  	;
 7097            	1466            	616             	369.0345452 	100         	0.26        	0           	Open  	;
 7108            	169             	170             	422.0889831 	100         	0.26        	0           	Open  	;
 7451            	604             	2009            	632.9837193 	600         	0.045       	0           	Open  	;
 7849            	2762            	604             	1561.664805 	600         	0.045       	0           	Open  	;
 8026            	2009            	3021            	851.5276766 	600         	0.045       	0           	Open  	;
 8027            	3021            	2010            	176.6382831 	600         	0.045       	0           	Open  	;
 12851           	750             	12850           	580.8849393 	100         	0.26        	0           	Open  	;
 12852           	12850           	749             	38.29460263 	100         	0.26        	0           	Open  	;
 12855           	749             	12854           	28.58489093 	100         	0.26        	0           	Open  	;
 12856           	12854           	748             	127.9096275 	100         	0.26        	0           	Open  	;
 12858           	748             	12857           	49.09280248 	100         	0.26        	0           	Open  	;
 12862           	12860           	748             	31.13844044 	100         	0.26        	0           	Open  	;
 12864           	12857           	12863           	133.7519444 	100         	0.26        	0           	Open  	;
 12865           	12863           	747             	65.52806469 	100         	0.26        	0           	Open  	;
 12867           	747             	12866           	63.91678736 	100         	0.26        	0           	Open  	;
 12868           	12866           	12860           	160.966212  	100         	0.26        	0           	Open  	;
 12870           	746             	12869           	174.1994523 	100         	0.26        	0           	Open  	;
 12871           	12869           	3235            	39.45874383 	100         	0.26        	0           	Open  	;
 12874           	12872           	2124            	97.91380567 	100         	0.26        	0           	Open  	;
 12876           	2124            	12875           	76.60388986 	100         	0.26        	0           	Open  	;
 12877           	12875           	751             	289.7006425 	100         	0.26        	0           	Open  	;
 12879           	743             	12878           	40.20237999 	100         	0.26        	0           	Open  	;
 12880           	12878           	744             	79.88655832 	100         	0.26        	0           	Open  	;
 12882           	743             	12881           	66.8368978  	100         	0.26        	0           	Open  	;
 12883           	12881           	745             	124.3505027 	100         	0.26        	0           	Open  	;
 12885           	755             	12884           	312.0386265 	100         	0.26        	0           	Open  	;
 12886           	12884           	12872           	373.6115707 	100         	0.26        	0           	Open  	;
 12889           	12887           	755             	148.6267882 	150         	0.26        	0           	Open  	;
 12891           	754             	12890           	64.72175213 	100         	0.26        	0           	Open  	;
 12892           	12890           	3860            	302.1389589 	100         	0.26        	0           	Open  	;
 12895           	12893           	12887           	167.4163862 	150         	0.26        	0           	Open  	;
 12897           	1456            	12896           	77.8378982  	150         	0.26        	0           	Open  	;
 12898           	12896           	12893           	84.49635346 	150         	0.26        	0           	Open  	;
 12900           	738             	12899           	361.2104901 	150         	0.26        	0           	Open  	;
 12903           	738             	12902           	103.4109388 	150         	0.26        	0           	Open  	;
 12907           	754             	12906           	53.01833177 	100         	0.26        	0           	Open  	;
 12908           	12906           	175             	58.78429602 	100         	0.26        	0           	Open  	;
 12910           	755             	12909           	55.40088083 	100         	0.26        	0           	Open  	;
 12911           	12909           	754             	36.66346677 	100         	0.26        	0           	Open  	;
 12913           	741             	12912           	425.2186372 	100         	0.26        	0           	Open  	;
 12914           	12912           	739             	137.2383434 	150         	0.26        	0           	Open  	;
 12916           	739             	12915           	77.87729671 	150         	0.26        	0           	Open  	;
 12919           	12915           	12918           	223.6023922 	150         	0.26        	0           	Open  	;
 12920           	12918           	738             	157.2828777 	150         	0.26        	0           	Open  	;
 12922           	12902           	12921           	127.6156517 	150         	0.26        	0           	Open  	;
 12926           	12924           	3233            	178.7692736 	150         	0.26        	0           	Open  	;
 12928           	3233            	12927           	201.2650309 	100         	0.26        	0           	Open  	;
 12929           	12927           	728             	132.5698679 	100         	0.26        	0           	Open  	;
 12931           	728             	12930           	167.763623  	100         	0.26        	0           	Open  	;
 12937           	12921           	12936           	88.07498054 	150         	0.26        	0           	Open  	;
 12938           	12936           	12924           	112.5308535 	150         	0.26        	0           	Open  	;
 12940           	12899           	12939           	466.9584973 	150         	0.26        	0           	Open  	;
 12941           	12939           	3234            	83.4028138  	150         	0.26        	0           	Open  	;
 12943           	3279            	12942           	36.74942649 	200         	0.26        	0           	Open  	;
 12944           	12942           	736             	91.87010699 	200         	0.26        	0           	Open  	;
 12947           	12945           	3279            	84.94696961 	200         	0.26        	0           	Open  	;
 12949           	164             	12948           	52.80732882 	100         	0.26        	0           	Open  	;
 12950           	12948           	166             	283.1973409 	100         	0.26        	0           	Open  	;
 12952           	736             	12951           	192.9157328 	100         	0.26        	0           	Open  	;
 12953           	12951           	164             	65.62732475 	100         	0.26        	0           	Open  	;
 12955           	1302            	12954           	94.21626365 	100         	0.26        	0           	Open  	;
 12958           	12954           	12957           	210.1382601 	100         	0.26        	0           	Open  	;
 12959           	12957           	167             	283.7985824 	100         	0.26        	0           	Open  	;
 12961           	1302            	12960           	117.7024026 	100         	0.26        	0           	Open  	;
 12962           	12960           	168             	23.15613654 	100         	0.26        	0           	Open  	;
 12964           	168             	12963           	20.52949908 	100         	0.26        	0           	Open  	;
 12965           	12963           	130             	233.0062107 	100         	0.26        	0           	Open  	;
 12967           	132             	12966           	210.1738652 	100         	0.26        	0           	Open  	;
 12974           	12972           	2759            	212.6469335 	100         	0.26        	0           	Open  	;
 12976           	129             	12975           	56.96062623 	100         	0.26        	0           	Open  	;
 12980           	12978           	129             	63.33071333 	150         	0.26        	0           	Open  	;
 12982           	129             	12981           	75.58890007 	100         	0.26        	0           	Open  	;
 12983           	12981           	168             	193.4890159 	100         	0.26        	0           	Open  	;
 12986           	12984           	12972           	149.0513414 	100         	0.26        	0           	Open  	;
 12988           	735             	12987           	26.97143186 	250         	0.26        	0           	Open  	;
 12989           	12987           	12945           	184.3171415 	250         	0.26        	0           	Open  	;
 12991           	12933           	12990           	91.7401041  	100         	0.26        	0           	Open  	;
 12992           	12990           	735             	30.80846647 	100         	0.26        	0           	Open  	;
 12995           	12993           	12933           	68.20446609 	100         	0.26        	0           	Open  	;
 12997           	12930           	12996           	61.93122882 	100         	0.26        	0           	Open  	;
 12998           	12996           	12993           	166.3517184 	100         	0.26        	0           	Open  	;
 13000           	1467            	12999           	177.3394272 	100         	0.26        	0           	Open  	;
 13001           	12999           	728             	62.02302676 	100         	0.26        	0           	Open  	;
 13004           	708             	13003           	48.91534059 	100         	0.26        	0           	Open  	;