[TITLE]
Scenario: SMALL - SMOOTH 
Date: 17/5/2022 

[JUNCTIONS]
;ID              	Elev        	Demand      	Pattern         
 122             	33.29470062 	0           	                	;
 128             	48.20557022 	0.010520833 	1               	;
 129             	40.26018906 	0.033923611 	1               	;
 130             	33.29104233 	0.018888889 	1               	;
 132             	24.81019402 	0           	                	;
 162             	29.68267059 	0.019409722 	1               	;
 164             	30.54152679 	0.013958333 	1               	;
 166             	27.3206749  	0.019895833 	1               	;
 167             	24.78153419 	0.033958333 	1               	;
 168             	28.74156952 	0           	                	;
 169             	25.9523201  	0           	                	;
 170             	25.20806313 	0           	                	;
 173             	42.60651779 	0           	                	;
 174             	46.65616989 	0.013020833 	1               	;
 175             	30.1459198  	0           	                	;
 181             	46.22414398 	0.022013889 	1               	;
 182             	46.22414398 	0           	                	;
 183             	36.63947678 	0.020520833 	1               	;
 184             	33.29470062 	0           	                	;
 185             	43.57028198 	0.042916667 	1               	;
 604             	65.70238304 	0           	                	;
 612             	53.97018814 	0.016388889 	1               	;
 613             	50.85184479 	0           	                	;
 615             	49.72509766 	0           	                	;
 616             	49.90552902 	0           	                	;
 617             	48.73373413 	0.112256944 	1               	;
 618             	49.8369751  	0.0096875   	1               	;
 619             	51.51711273 	0.036354167 	1               	;
 621             	51.83773041 	0.016041667 	1               	;
 622             	49.59844589 	0           	                	;
 624             	33.17961502 	0.038194444 	1               	;
 625             	55.60690308 	0.115138889 	1               	;
 626             	49.59106445 	0           	                	;
 627             	53.32428741 	0           	                	;
 628             	49.21061325 	0           	                	;
 629             	48.57908249 	0           	                	;
 630             	39.57807159 	0           	                	;
 632             	43.81867981 	0.029444444 	1               	;
 708             	34.66796494 	0.016354167 	1               	;
 710             	28.57468414 	0.087951389 	1               	;
 719             	36.65763474 	0.024652778 	1               	;
 721             	39.77185822 	0           	                	;
 723             	42.91667557 	0           	                	;
 724             	42.46834946 	0.033680556 	1               	;
 726             	29.5855484  	0           	                	;
 727             	32.18384171 	0.083368056 	1               	;
 728             	33.17059708 	0           	                	;
 729             	47.5567627  	0.046006944 	1               	;
 730             	48.76678085 	0.002083333 	1               	;
 732             	49.03995895 	0           	                	;
 733             	45.58271408 	0           	                	;
 734             	44.76599884 	0.051388889 	1               	;
 735             	33.49935913 	0           	                	;
 736             	34.66946411 	0           	                	;
 737             	33.11510086 	0.196076389 	1               	;
 738             	32.38347626 	0.050381944 	1               	;
 739             	31.74964142 	0           	                	;
 740             	31.74964142 	0.030798611 	1               	;
 741             	30.49715424 	0           	                	;
 743             	28.9054184  	0           	                	;
 744             	29.16739273 	0.005798611 	1               	;
 745             	28.84119034 	0.050555556 	1               	;
 746             	29.23752594 	0.001979167 	1               	;
 747             	28.05725861 	0           	                	;
 748             	25.97383118 	0.052534722 	1               	;
 749             	25.18717957 	0.036215278 	1               	;
 750             	26.27825928 	0.041284722 	1               	;
 751             	28.17973328 	0           	                	;
 752             	28.17973328 	0.060104167 	1               	;
 754             	31.57808304 	0           	                	;
 755             	30.87614822 	0           	                	;
 1184            	50.92703629 	0           	                	;
 1261            	48.03189087 	0           	                	;
 1302            	30.36299133 	0           	                	;
 1456            	29.56036758 	0.015034722 	1               	;
 1466            	54.14008331 	0           	                	;
 1467            	39.77185822 	0           	                	;
 1552            	52.07165909 	0.041909722 	1               	;
 1554            	24.2864418  	0.065694444 	1               	;
 2009            	50.0593338  	0           	                	;
 2010            	54.19068909 	0           	                	;
 2048            	46.58271408 	0           	                	;
 2124            	29.32266235 	0           	                	;
 2740            	26.62316132 	0.132881944 	1               	;
 2759            	35.27824402 	0.085104167 	1               	;
 2760            	25.96389771 	0.066736111 	1               	;
 2761            	95.61243439 	0           	                	;
 2762            	84.59255219 	0           	                	;
 3021            	53.44335938 	0           	                	;
 3090            	31.97174072 	0.014097222 	1               	;
 3101            	52.86180115 	0           	                	;
 3117            	55.60690308 	0.027465278 	1               	;
 3200            	52.56518936 	0.005798611 	1               	;
 3201            	46.48830414 	0.080034722 	1               	;
 3227            	39.57807159 	0           	                	;
 3233            	33.24208832 	0           	                	;
 3234            	33.29470062 	0           	                	;
 3235            	28.29724884 	0           	                	;
 3278            	33.29104233 	0.010173611 	1               	;
 3279            	35.37417221 	0           	                	;
 3280            	53.26961136 	0.009861111 	1               	;
 3860            	30.8920784  	0.012951389 	1               	;
 12850           	26.00727061 	0.003854167 	1               	;
 12854           	25.06149718 	0           	                	;
 12857           	26.59499754 	0.009513889 	1               	;
 12860           	26.74071961 	0.082256944 	1               	;
 12863           	27.56290419 	0.019479167 	1               	;
 12866           	27.53573594 	0.003576389 	1               	;
 12869           	28.20962727 	0.0275      	1               	;
 12872           	28.89231011 	0.036770833 	1               	;
 12875           	29.1292771  	0.084131944 	1               	;
 12878           	29.98880484 	0.078368056 	1               	;
 12881           	29.18378821 	0.0521875   	1               	;
 12884           	29.43449213 	0.068263889 	1               	;
 12887           	30.5352114  	0.050347222 	1               	;
 12890           	31.98631927 	0.040208333 	1               	;
 12893           	30.0248631  	0.113993056 	1               	;
 12896           	29.26258078 	0.020173611 	1               	;
 12899           	32.04567851 	0.1915625   	1               	;
 12902           	32.02068869 	0.020555556 	1               	;
 12906           	30.79578627 	0.074548611 	1               	;
 12909           	30.90030894 	0.040381944 	1               	;
 12912           	31.95604125 	0.147777778 	1               	;
 12915           	31.66895219 	0.04125     	1               	;
 12918           	31.56606228 	0.011145833 	1               	;
 12921           	31.5729929  	0.071597222 	1               	;
 12924           	32.86923765 	0.005069444 	1               	;
 12927           	34.77299575 	0.041076389 	1               	;
 12930           	34.97602993 	0           	                	;
 12933           	36.56341433 	0.0078125   	1               	;
 12936           	31.2640127  	0.0034375   	1               	;
 12939           	35.68163417 	0.087951389 	1               	;
 12942           	35.17282162 	0.0340625   	1               	;
 12945           	34.83655881 	0.068680556 	1               	;
 12948           	30.03532971 	0.006805556 	1               	;
 12951           	31.58934253 	0.0159375   	1               	;
 12954           	28.34750438 	0.048090278 	1               	;
 12957           	23.85236573 	0.107569444 	1               	;
 12960           	29.00811967 	0.033263889 	1               	;
 12963           	28.30022501 	0.038472222 	1               	;
 12966           	25.33010417 	0.2228125   	1               	;
 12972           	37.14153135 	0.021423611 	1               	;
 12975           	39.76108034 	0.020069444 	1               	;
 12978           	40.94616985 	0.009027778 	1               	;
 12981           	39.8335811  	0.002777778 	1               	;
 12984           	38.4475683  	0.007222222 	1               	;
 12987           	33.67005549 	0           	                	;
 12990           	34.2696565  	0.0134375   	1               	;
 12993           	38.26865564 	0           	                	;
 12996           	35.42766766 	0.018472222 	1               	;
 12999           	36.10374725 	0.045       	1               	;
 13003           	35.81691181 	0.087777778 	1               	;
 13006           	38.25950745 	0.130729167 	1               	;
 13009           	41.10648294 	0.122326389 	1               	;
 13012           	43.55728749 	0.020486111 	1               	;
 13015           	46.97143639 	0           	                	;
 13018           	38.70028423 	0.028541667 	1               	;
 13021           	42.36815994 	0.012708333 	1               	;
 13024           	39.24914203 	0           	                	;
 13027           	48.28025478 	0.027743056 	1               	;
 13030           	49.37271564 	0.040625    	1               	;
 13033           	48.25055809 	0.000972222 	1               	;
 13036           	51.70347751 	0.015381944 	1               	;
 13039           	48.75456034 	0.065243056 	1               	;
 13042           	47.27020769 	0.075520833 	1               	;
 13045           	48.6772328  	0.067986111 	1               	;
 13048           	49.04484201 	0.022222222 	1               	;
 13051           	48.23636851 	0           	                	;
 13054           	38.39158747 	0.0259375   	1               	;
 13057           	40.51985898 	0.059375    	1               	;
 13060           	34.33351979 	0.1415625   	1               	;
 13063           	31.84740411 	0.069513889 	1               	;
 13066           	30.2360877  	0.187916667 	1               	;
 13069           	28.47799474 	0.051145833 	1               	;
 13072           	27.19766892 	0.053888889 	1               	;
 13075           	48.3409567  	0.042708333 	1               	;
 13078           	45.53812903 	0.049340278 	1               	;
 13081           	30.79705526 	0.0265625   	1               	;
 13084           	35.76167065 	0.069791667 	1               	;
 13087           	39.75802061 	0           	                	;
 13090           	41.05969112 	0           	                	;
 13093           	56.73741576 	0.063263889 	1               	;
 13096           	48.52625727 	0.083402778 	1               	;
 13099           	54.82082623 	0.013645833 	1               	;
 13102           	53.7540472  	0.025694444 	1               	;
 13105           	47.42145768 	0.005833333 	1               	;
 13108           	42.27599517 	0.098194444 	1               	;
 13111           	48.55731531 	0.067222222 	1               	;
 13114           	54.18482441 	0.041493056 	1               	;
 13117           	49.20760723 	0.096041667 	1               	;
 13120           	48.29424163 	0           	                	;
 13123           	51.61598572 	0           	                	;
 13126           	54.89212053 	0.014270833 	1               	;
 13129           	49.45679045 	0.013125    	1               	;
 13132           	50.30684352 	0           	                	;
 13135           	48.72568154 	0.025243056 	1               	;
 13138           	55.87878765 	0.021944444 	1               	;
 13141           	54.4743614  	0.0234375   	1               	;
 13144           	49.87350526 	0.024166667 	1               	;
 13147           	50.87879801 	0.012569444 	1               	;
 13150           	58.01978024 	0.022534722 	1               	;
 13153           	54.49925249 	0.142152778 	1               	;
 13156           	56.70202359 	0.2778125   	1               	;
 13159           	48.15941235 	0.077986111 	1               	;
 13162           	54.19806173 	0.01875     	1               	;
 13165           	52.53237718 	0.044756944 	1               	;
 13168           	48.03098981 	0.001701389 	1               	;
 13201           	54.47232241 	0.028541667 	1               	;
 13204           	50.91281014 	0.004652778 	1               	;
 1               	54.92671833 	0           	                	;

[RESERVOIRS]
;ID              	Head        	Pattern         
 2               	125.81      	                	;

[TANKS]
;ID              	Elevation   	InitLevel   	MinLevel    	MaxLevel    	Diameter    	MinVol      	VolCurve        	Overflow

[PIPES]
;ID              	Node1           	Node2           	Length      	Diameter    	Roughness   	MinorLoss   	Status
 4265            	739             	740             	1.19910108690959	100         	0.26        	0           	Open  	;
 4304            	751             	752             	1.1733455140468	100         	0.26        	0           	Open  	;
 4376            	3227            	630             	1.1276967672547	100         	0.26        	0           	Open  	;
 4384            	173             	724             	1.15156936872616	100         	0.26        	0           	Open  	;
 4428            	721             	1467            	1.3448048187284	100         	0.26        	0           	Open  	;
 4445            	719             	183             	1.52659960932152	100         	0.26        	0           	Open  	;
 4457            	182             	181             	1.61307160430962	100         	0.26        	0           	Open  	;
 4466            	184             	3234            	1.67083811315988	100         	0.26        	0           	Open  	;
 4494            	3234            	122             	1.84000978784459	100         	0.26        	0           	Open  	;
 4535            	626             	628             	2.07963939158516	150         	0.26        	0           	Open  	;
 4549            	625             	3117            	2.21670113063818	100         	0.26        	0           	Open  	;
 4631            	733             	2048            	2.81300550968579	100         	0.26        	0           	Open  	;
 4652            	130             	3278            	2.99082055568967	100         	0.26        	0           	Open  	;
 4752            	122             	737             	3.94355176556954	100         	0.26        	0           	Open  	;
 4824            	174             	182             	5.31749358347374	100         	0.26        	0           	Open  	;
 4830            	1               	612             	5.49673473777707	150         	0.26        	0           	Open  	;
 4874            	3101            	3200            	6.01283371667524	100         	0.26        	0           	Open  	;
 5464            	132             	1554            	8.08967119816034	100         	0.26        	0           	Open  	;
 5553            	622             	626             	10.2331695982521	150         	0.26        	0           	Open  	;
 5565            	164             	1302            	10.5384985219584	100         	0.26        	0           	Open  	;
 5642            	1552            	627             	13.1187312400439	100         	0.26        	0           	Open  	;
 5660            	751             	3235            	13.8642049383857	100         	0.26        	0           	Open  	;
 5667            	615             	616             	14.3665297452852	100         	0.26        	0           	Open  	;
 5677            	744             	2124            	15.0035982359813	100         	0.26        	0           	Open  	;
 5689            	730             	729             	15.5018373750391	100         	0.26        	0           	Open  	;
 5726            	747             	746             	16.7483904128182	100         	0.26        	0           	Open  	;
 5751            	1466            	1261            	17.8524093457015	100         	0.26        	0           	Open  	;
 5758            	2761            	2762            	17.9995650222626	150         	0.26        	0           	Open  	;
 5804            	734             	632             	20.769980268249	100         	0.26        	0           	Open  	;
 6010            	736             	184             	35.6583840077237	100         	0.26        	0           	Open  	;
 6131            	710             	1456            	43.2216544542901	100         	0.26        	0           	Open  	;
 6161            	619             	3201            	46.1083541692235	100         	0.26        	0           	Open  	;
 6163            	708             	735             	44.8517086875963	100         	0.26        	0           	Open  	;
 6187            	162             	1456            	46.5030341546643	100         	0.26        	0           	Open  	;
 6188            	128             	174             	46.4799260121208	100         	0.26        	0           	Open  	;
 6256            	3090            	2759            	51.1296946131963	100         	0.26        	0           	Open  	;
 6262            	624             	727             	51.2495298152038	100         	0.26        	0           	Open  	;
 6265            	182             	734             	53.8626688253007	100         	0.26        	0           	Open  	;
 6269            	746             	741             	51.8210013242675	100         	0.26        	0           	Open  	;
 6404            	2048            	1467            	60.0598044595849	100         	0.26        	0           	Open  	;
 6413            	122             	162             	60.5213069835209	100         	0.26        	0           	Open  	;
 6415            	622             	1552            	60.7514770838129	100         	0.26        	0           	Open  	;
 6434            	2760            	2740            	66.4810891772546	100         	0.26        	0           	Open  	;
 6449            	613             	3200            	62.4739504255871	100         	0.26        	0           	Open  	;
 6593            	723             	173             	73.5219177122959	100         	0.26        	0           	Open  	;
 6633            	2740            	3090            	75.3466733273352	100         	0.26        	0           	Open  	;
 6663            	2759            	719             	87.6747538623539	100         	0.26        	0           	Open  	;
 6671            	175             	744             	78.7508871849364	100         	0.26        	0           	Open  	;
 6677            	621             	619             	79.0270780437053	100         	0.26        	0           	Open  	;
 6696            	732             	1552            	81.1886001292675	100         	0.26        	0           	Open  	;
 6713            	3201            	721             	82.4888386449405	100         	0.26        	0           	Open  	;
 6779            	719             	630             	91.3992425692114	100         	0.26        	0           	Open  	;
 6818            	169             	2760            	92.9584401003202	100         	0.26        	0           	Open  	;
 6833            	3233            	3201            	97.1531463111952	100         	0.26        	0           	Open  	;
 6842            	3235            	749             	102.992274392429	100         	0.26        	0           	Open  	;
 6866            	130             	169             	97.7546318397186	100         	0.26        	0           	Open  	;
 6906            	741             	743             	106.117211798231	100         	0.26        	0           	Open  	;
 6943            	612             	625             	103.943029010993	150         	0.26        	0           	Open  	;
 6944            	615             	627             	104.538084864232	100         	0.26        	0           	Open  	;
 7012            	170             	132             	112.076849003576	100         	0.26        	0           	Open  	;
 7097            	1466            	616             	123.011515053878	100         	0.26        	0           	Open  	;
 7108            	169             	170             	140.696327701107	100         	0.26        	0           	Open  	;
 7451            	604             	2009            	210.994573111043	150         	0.26        	0           	Open  	;
 7849            	2762            	604             	520.55493495631	150         	0.26        	0           	Open  	;
 8026            	2009            	3021            	283.842558869158	150         	0.26        	0           	Open  	;
 8027            	3021            	2010            	58.8794277148569	150         	0.26        	0           	Open  	;
 12851           	750             	12850           	193.628313096407	100         	0.26        	0           	Open  	;
 12852           	12850           	749             	12.7648675428199	100         	0.26        	0           	Open  	;
 12855           	749             	12854           	9.52829697560742	100         	0.26        	0           	Open  	;
 12856           	12854           	748             	42.6365425158159	100         	0.26        	0           	Open  	;
 12858           	748             	12857           	16.3642674918055	100         	0.26        	0           	Open  	;
 12862           	12860           	748             	10.3794801466278	100         	0.26        	0           	Open  	;
 12864           	12857           	12863           	44.5839814768403	100         	0.26        	0           	Open  	;
 12865           	12863           	747             	21.8426882285571	100         	0.26        	0           	Open  	;
 12867           	747             	12866           	21.305595786618	100         	0.26        	0           	Open  	;
 12868           	12866           	12860           	53.6554039987534	100         	0.26        	0           	Open  	;
 12870           	746             	12869           	58.0664840911962	100         	0.26        	0           	Open  	;
 12871           	12869           	3235            	13.1529146115533	100         	0.26        	0           	Open  	;
 12874           	12872           	2124            	32.6379352247816	100         	0.26        	0           	Open  	;
 12876           	2124            	12875           	25.5346299521434	100         	0.26        	0           	Open  	;
 12877           	12875           	751             	96.5668808499533	100         	0.26        	0           	Open  	;
 12879           	743             	12878           	13.4007933298362	100         	0.26        	0           	Open  	;
 12880           	12878           	744             	26.6288527728847	100         	0.26        	0           	Open  	;
 12882           	743             	12881           	22.2789659321591	100         	0.26        	0           	Open  	;
 12883           	12881           	745             	41.4501675526197	100         	0.26        	0           	Open  	;
 12885           	755             	12884           	104.012875500855	100         	0.26        	0           	Open  	;
 12886           	12884           	12872           	124.537190224107	100         	0.26        	0           	Open  	;
 12889           	12887           	755             	49.542262747562	100         	0.26        	0           	Open  	;
 12891           	754             	12890           	21.5739173769148	100         	0.26        	0           	Open  	;
 12892           	12890           	3860            	100.712986306324	100         	0.26        	0           	Open  	;
 12895           	12893           	12887           	55.8054620737773	100         	0.26        	0           	Open  	;
 12897           	1456            	12896           	25.9459660660484	100         	0.26        	0           	Open  	;
 12898           	12896           	12893           	28.1654511541795	100         	0.26        	0           	Open  	;
 12900           	738             	12899           	120.403496708265	100         	0.26        	0           	Open  	;
 12903           	738             	12902           	34.4703129480937	100         	0.26        	0           	Open  	;
 12907           	754             	12906           	17.6727772555333	100         	0.26        	0           	Open  	;
 12908           	12906           	175             	19.594765341481	100         	0.26        	0           	Open  	;
 12910           	755             	12909           	18.4669602763519	100         	0.26        	0           	Open  	;
 12911           	12909           	754             	12.2211555909621	100         	0.26        	0           	Open  	;
 12913           	741             	12912           	141.739545723458	100         	0.26        	0           	Open  	;
 12914           	12912           	739             	45.7461144500968	100         	0.26        	0           	Open  	;
 12916           	739             	12915           	25.9590989035922	100         	0.26        	0           	Open  	;
 12919           	12915           	12918           	74.5341307441015	100         	0.26        	0           	Open  	;
 12920           	12918           	738             	52.4276259067867	100         	0.26        	0           	Open  	;
 12922           	12902           	12921           	42.5385505553236	100         	0.26        	0           	Open  	;
 12926           	12924           	3233            	59.5897578529762	100         	0.26        	0           	Open  	;
 12928           	3233            	12927           	67.0883436416312	100         	0.26        	0           	Open  	;
 12929           	12927           	728             	44.1899559664488	100         	0.26        	0           	Open  	;
 12931           	728             	12930           	55.9212076635404	100         	0.26        	0           	Open  	;
 12937           	12921           	12936           	29.3583268480308	100         	0.26        	0           	Open  	;
 12938           	12936           	12924           	37.5102845105678	100         	0.26        	0           	Open  	;
 12940           	12899           	12939           	155.652832420133	100         	0.26        	0           	Open  	;
 12941           	12939           	3234            	27.8009379320325	100         	0.26        	0           	Open  	;
 12943           	3279            	12942           	12.2498088294497	100         	0.26        	0           	Open  	;
 12944           	12942           	736             	30.623368997782	100         	0.26        	0           	Open  	;
 12947           	12945           	3279            	28.3156565376348	100         	0.26        	0           	Open  	;
 12949           	164             	12948           	17.6024429390998	100         	0.26        	0           	Open  	;
 12950           	12948           	166             	94.3991136407862	100         	0.26        	0           	Open  	;
 12952           	736             	12951           	64.3052442648069	100         	0.26        	0           	Open  	;
 12953           	12951           	164             	21.8757749160683	100         	0.26        	0           	Open  	;
 12955           	1302            	12954           	31.4054212178512	100         	0.26        	0           	Open  	;
 12958           	12954           	12957           	70.0460867029162	100         	0.26        	0           	Open  	;
 12959           	12957           	167             	94.5995274813124	100         	0.26        	0           	Open  	;
 12961           	1302            	12960           	39.2341341846786	100         	0.26        	0           	Open  	;
 12962           	12960           	168             	7.71871218161615	100         	0.26        	0           	Open  	;
 12964           	168             	12963           	6.84316636127452	100         	0.26        	0           	Open  	;
 12965           	12963           	130             	77.6687368860142	100         	0.26        	0           	Open  	;
 12967           	132             	12966           	70.0579550775409	100         	0.26        	0           	Open  	;
 12974           	12972           	2759            	70.8823111746934	100         	0.26        	0           	Open  	;
 12976           	129             	12975           	18.9868754088307	100         	0.26        	0           	Open  	;
 12980           	12978           	129             	21.1102377771183	100         	0.26        	0           	Open  	;
 12982           	129             	12981           	25.1963000240818	100         	0.26        	0           	Open  	;
 12983           	12981           	168             	64.4963386341457	100         	0.26        	0           	Open  	;
 12986           	12984           	12972           	49.6837804777749	100         	0.26        	0           	Open  	;
 12988           	735             	12987           	8.99047728742298	100         	0.26        	0           	Open  	;
 12989           	12987           	12945           	61.4390471812819	100         	0.26        	0           	Open  	;
 12991           	12933           	12990           	30.5800346999787	100         	0.26        	0           	Open  	;
 12992           	12990           	735             	10.2694888225081	100         	0.26        	0           	Open  	;
 12995           	12993           	12933           	22.734822030266	100         	0.26        	0           	Open  	;